@<TRIPOS>MOLECULE
117
   76    79     0     0     0
SMALL
NO_CHARGES

@<TRIPOS>ATOM
      1 C1         -1.878    1.749    -3.25 C.ar      1 117_ideal         0.0000
      2 C2         -1.928    0.466    -2.703 C.ar      1 117_ideal         0.0000
      3 C3         -2.948    -0.406    -3.081 C.ar      1 117_ideal         0.0000
      4 C4         -3.908    0.006    -3.982 C.ar      1 117_ideal         0.0000
      5 C5         -3.853    1.279    -4.52 C.ar      1 117_ideal         0.0000
      6 C6         -2.84    2.148    -4.154 C.ar      1 117_ideal         0.0000
      7 C7         -4.413    0.593    1.053 C.ar      1 117_ideal         0.0000
      8 C8         -3.195    0.679    0.411 C.ar      1 117_ideal         0.0000
      9 C9         -2.408    -0.463    0.257 C.ar      1 117_ideal         0.0000
     10 C10        -2.861    -1.688    0.751 C.ar      1 117_ideal         0.0000
     11 C11        -4.078    -1.761    1.396 C.ar      1 117_ideal         0.0000
     12 C12        -4.855    -0.623    1.545 C.ar      1 117_ideal         0.0000
     13 F1         -6.049    -0.702    2.174 F         1 117_ideal         0.0000
     14 C13        -1.104    -0.378    -0.429 C.2       1 117_ideal         0.0000
     15 C14         2.077    -0.319    -5.346 C.ar      1 117_ideal         0.0000
     16 C15         2.91    -1.221    -5.996 C.ar      1 117_ideal         0.0000
     17 C16         3.485    -0.881    -7.204 C.ar      1 117_ideal         0.0000
     18 C17         3.233    0.356    -7.768 C.ar      1 117_ideal         0.0000
     19 C18         2.404    1.256    -7.124 C.ar      1 117_ideal         0.0000
     20 C19         1.821    0.92    -5.918 C.ar      1 117_ideal         0.0000
     21 O1          -2.1651    0.497    9.6711 O.3       1 117_ideal         0.0000
     22 O2          -0.7974    -1.0364    8.8614 O.2       1 117_ideal         0.0000
     23 O3          0.4697    -0.3569    6.6168 O.3       1 117_ideal         0.0000
     24 C20         -1.5335    -0.1037    8.6503 C.2       1 117_ideal         0.0000
     25 C21         -1.7428    0.3865    7.2402 C.3       1 117_ideal         0.0000
     26 C22         -0.9139    -0.4641    6.2764 C.3       1 117_ideal         0.0000
     27 C23         -1.1267    0.034    4.8455 C.3       1 117_ideal         0.0000
     28 C24         -0.2983    -0.8157    3.8807 C.3       1 117_ideal         0.0000
     29 C25         -0.5105    -0.3183    2.4497 C.3       1 117_ideal         0.0000
     30 C26         0.318    -1.168    1.485 C.3       1 117_ideal         0.0000
     31 N1          0.114    -0.691    0.115 N.pl3     1 117_ideal         0.0000
     32 C27        -0.899    0.032    -1.732 C.2       1 117_ideal         0.0000
     33 C28         0.553    -0.046    -1.954 C.2       1 117_ideal         0.0000
     34 C29         1.276    0.288    -3.191 C.2       1 117_ideal         0.0000
     35 N2          1.492    -0.661    -4.123 N.am      1 117_ideal         0.0000
     36 O4          1.679    1.421    -3.372 O.2       1 117_ideal         0.0000
     37 C30         1.097    -0.5    -0.784 C.2       1 117_ideal         0.0000
     38 C31         2.564    -0.741    -0.539 C.3       1 117_ideal         0.0000
     39 C32         3.079    -1.794    -1.523 C.3       1 117_ideal         0.0000
     40 C33         3.336    0.564    -0.74 C.3       1 117_ideal         0.0000
     41 O5          1.0852    -0.7099    4.2209 O.3       1 117_ideal         0.0000
     42 H1         -1.088    2.428    -2.965 H         1 117_ideal         0.0000
     43 H2         -2.992    -1.401    -2.661 H         1 117_ideal         0.0000
     44 H3         -4.701    -0.667    -4.271 H         1 117_ideal         0.0000
     45 H4         -4.604    1.596    -5.228 H         1 117_ideal         0.0000
     46 H5         -2.803    3.141    -4.578 H         1 117_ideal         0.0000
     47 H6         -5.023    1.476    1.172 H         1 117_ideal         0.0000
     48 H7         -2.852    1.628    0.028 H         1 117_ideal         0.0000
     49 H8         -2.257    -2.576    0.635 H         1 117_ideal         0.0000
     50 H9         -4.428    -2.707    1.782 H         1 117_ideal         0.0000
     51 H10         3.107    -2.187    -5.556 H         1 117_ideal         0.0000
     52 H11         4.133    -1.581    -7.71 H         1 117_ideal         0.0000
     53 H12         3.684    0.62    -8.713 H         1 117_ideal         0.0000
     54 H13         2.209    2.222    -7.566 H         1 117_ideal         0.0000
     55 H14         1.174    1.624    -5.415 H         1 117_ideal         0.0000
     56 H15         -2.0307    0.183    10.5753 H         1 117_ideal         0.0000
     57 H16         0.7056    0.5776    6.5397 H         1 117_ideal         0.0000
     58 H17         -1.4296    1.4282    7.1683 H         1 117_ideal         0.0000
     59 H18         -2.7981    0.3059    6.9809 H         1 117_ideal         0.0000
     60 H19         -1.2285    -1.5044    6.3485 H         1 117_ideal         0.0000
     61 H20         -0.8133    1.0759    4.7725 H         1 117_ideal         0.0000
     62 H21         -2.182    -0.0466    4.5861 H         1 117_ideal         0.0000
     63 H22        -0.611    -1.857    3.9539 H         1 117_ideal         0.0000
     64 H23         -0.197    0.7236    2.3768 H         1 117_ideal         0.0000
     65 H24        -1.5658    -0.3989    2.1904 H         1 117_ideal         0.0000
     66 H25        0.0053    -2.2093    1.5582 H         1 117_ideal         0.0000
     67 H26         1.3731    -1.0876    1.7453 H         1 117_ideal         0.0000
     68 H27         1.243    -1.581    -3.945 H         1 117_ideal         0.0000
     69 H28         2.709    -1.096    0.48 H         1 117_ideal         0.0000
     70 H29         2.529    -2.724    -1.38 H         1 117_ideal         0.0000
     71 H30         2.934    -1.439    -2.543 H         1 117_ideal         0.0000
     72 H31         4.14    -1.968    -1.346 H         1 117_ideal         0.0000
     73 H32         2.969    1.314    -0.039 H         1 117_ideal         0.0000
     74 H33         4.397    0.389    -0.563 H         1 117_ideal         0.0000
     75 H34         3.191    0.918    -1.76 H         1 117_ideal         0.0000
     76 H35         1.3218    0.2253    4.144 H         1 117_ideal         0.0000
@<TRIPOS>BOND
     1    1    2 ar
     2    1    6 ar
     3    1   42 1
     4    2    3 ar
     5    2   32 1
     6    3    4 ar
     7    3   43 1
     8    4    5 ar
     9    4   44 1
    10    5    6 ar
    11    5   45 1
    12    6   46 1
    13    7    8 ar
    14    7   12 ar
    15    7   47 1
    16    8    9 ar
    17    8   48 1
    18    9   10 ar
    19    9   14 1
    20   10   11 ar
    21   10   49 1
    22   11   12 ar
    23   11   50 1
    24   12   13 1
    25   14   31 1
    26   14   32 2
    27   15   16 ar
    28   15   20 ar
    29   15   35 1
    30   16   17 ar
    31   16   51 1
    32   17   18 ar
    33   17   52 1
    34   18   19 ar
    35   18   53 1
    36   19   20 ar
    37   19   54 1
    38   20   55 1
    39   21   24 1
    40   21   56 1
    41   22   24 2
    42   23   26 1
    43   23   57 1
    44   24   25 1
    45   25   26 1
    46   25   58 1
    47   25   59 1
    48   26   27 1
    49   26   60 1
    50   27   28 1
    51   27   61 1
    52   27   62 1
    53   28   29 1
    54   28   41 1
    55   28   63 1
    56   29   30 1
    57   29   64 1
    58   29   65 1
    59   30   31 1
    60   30   66 1
    61   30   67 1
    62   31   37 1
    63   32   33 1
    64   33   34 1
    65   33   37 2
    66   34   35 am
    67   34   36 2
    68   35   68 1
    69   37   38 1
    70   38   39 1
    71   38   40 1
    72   38   69 1
    73   39   70 1
    74   39   71 1
    75   39   72 1
    76   40   73 1
    77   40   74 1
    78   40   75 1
    79   41   76 1
