@<TRIPOS>MOLECULE
117
   76    79     0     0     0
SMALL
NO_CHARGES

@<TRIPOS>ATOM
      1 C1         -1.8780    1.7490   -3.2500 C.ar      1 117_ideal         0.0000
      2 C2         -1.9280    0.4660   -2.7030 C.ar      1 117_ideal         0.0000
      3 C3         -2.9480   -0.4060   -3.0810 C.ar      1 117_ideal         0.0000
      4 C4         -3.9080    0.0060   -3.9820 C.ar      1 117_ideal         0.0000
      5 C5         -3.8530    1.2790   -4.5200 C.ar      1 117_ideal         0.0000
      6 C6         -2.8400    2.1480   -4.1540 C.ar      1 117_ideal         0.0000
      7 C7         -4.4130    0.5930    1.0530 C.ar      1 117_ideal         0.0000
      8 C8         -3.1950    0.6790    0.4110 C.ar      1 117_ideal         0.0000
      9 C9         -2.4080   -0.4630    0.2570 C.ar      1 117_ideal         0.0000
     10 C10        -2.8610   -1.6880    0.7510 C.ar      1 117_ideal         0.0000
     11 C11        -4.0780   -1.7610    1.3960 C.ar      1 117_ideal         0.0000
     12 C12        -4.8550   -0.6230    1.5450 C.ar      1 117_ideal         0.0000
     13 F1         -6.0490   -0.7020    2.1740 F         1 117_ideal         0.0000
     14 C13        -1.1040   -0.3780   -0.4290 C.2       1 117_ideal         0.0000
     15 C14         2.0770   -0.3190   -5.3460 C.ar      1 117_ideal         0.0000
     16 C15         2.9100   -1.2210   -5.9960 C.ar      1 117_ideal         0.0000
     17 C16         3.4850   -0.8810   -7.2040 C.ar      1 117_ideal         0.0000
     18 C17         3.2330    0.3560   -7.7680 C.ar      1 117_ideal         0.0000
     19 C18         2.4040    1.2560   -7.1240 C.ar      1 117_ideal         0.0000
     20 C19         1.8210    0.9200   -5.9180 C.ar      1 117_ideal         0.0000
     21 O1          1.8240    1.8120    9.5350 O.3       1 117_ideal         0.0000
     22 O2          1.5880   -0.2500    8.7800 O.2       1 117_ideal         0.0000
     23 O3          2.3290   -0.6240    6.2470 O.3       1 117_ideal         0.0000
     24 C20         1.6110    0.9330    8.5430 C.2       1 117_ideal         0.0000
     25 C21         1.4010    1.4230    7.1330 C.3       1 117_ideal         0.0000
     26 C22         1.1820    0.2270    6.2050 C.3       1 117_ideal         0.0000
     27 C23         0.9690    0.7250    4.7740 C.3       1 117_ideal         0.0000
     28 C24         0.7500   -0.4700    3.8450 C.3       1 117_ideal         0.0000
     29 C25         0.5370    0.0270    2.4140 C.3       1 117_ideal         0.0000
     30 C26         0.3180   -1.1680    1.4850 C.3       1 117_ideal         0.0000
     31 N1          0.1140   -0.6910    0.1150 N.pl3     1 117_ideal         0.0000
     32 C27        -0.8990    0.0320   -1.7320 C.2       1 117_ideal         0.0000
     33 C28         0.5530   -0.0460   -1.9540 C.2       1 117_ideal         0.0000
     34 C29         1.2760    0.2880   -3.1910 C.2       1 117_ideal         0.0000
     35 N2          1.4920   -0.6610   -4.1230 N.am      1 117_ideal         0.0000
     36 O4          1.6790    1.4210   -3.3720 O.2       1 117_ideal         0.0000
     37 C30         1.0970   -0.5000   -0.7840 C.2       1 117_ideal         0.0000
     38 C31         2.5640   -0.7410   -0.5390 C.3       1 117_ideal         0.0000
     39 C32         3.0790   -1.7940   -1.5230 C.3       1 117_ideal         0.0000
     40 C33         3.3360    0.5640   -0.7400 C.3       1 117_ideal         0.0000
     41 O5          1.8960   -1.3220    3.8870 O.3       1 117_ideal         0.0000
     42 H1         -1.0880    2.4280   -2.9650 H         1 117_ideal         0.0000
     43 H2         -2.9920   -1.4010   -2.6610 H         1 117_ideal         0.0000
     44 H3         -4.7010   -0.6670   -4.2710 H         1 117_ideal         0.0000
     45 H4         -4.6040    1.5960   -5.2280 H         1 117_ideal         0.0000
     46 H5         -2.8030    3.1410   -4.5780 H         1 117_ideal         0.0000
     47 H6         -5.0230    1.4760    1.1720 H         1 117_ideal         0.0000
     48 H7         -2.8520    1.6280    0.0280 H         1 117_ideal         0.0000
     49 H8         -2.2570   -2.5760    0.6350 H         1 117_ideal         0.0000
     50 H9         -4.4280   -2.7070    1.7820 H         1 117_ideal         0.0000
     51 H10         3.1070   -2.1870   -5.5560 H         1 117_ideal         0.0000
     52 H11         4.1330   -1.5810   -7.7100 H         1 117_ideal         0.0000
     53 H12         3.6840    0.6200   -8.7130 H         1 117_ideal         0.0000
     54 H13         2.2090    2.2220   -7.5660 H         1 117_ideal         0.0000
     55 H14         1.1740    1.6240   -5.4150 H         1 117_ideal         0.0000
     56 H15         1.9590    1.4980   10.4390 H         1 117_ideal         0.0000
     57 H16         3.0820   -0.0940    5.9520 H         1 117_ideal         0.0000
     58 H17         2.2800    1.9800    6.8080 H         1 117_ideal         0.0000
     59 H18         0.5270    2.0730    7.1010 H         1 117_ideal         0.0000
     60 H19         0.3030   -0.3280    6.5300 H         1 117_ideal         0.0000
     61 H20         1.8480    1.2820    4.4480 H         1 117_ideal         0.0000
     62 H21         0.0950    1.3750    4.7420 H         1 117_ideal         0.0000
     63 H22        -0.1280   -1.0270    4.1710 H         1 117_ideal         0.0000
     64 H23         1.4160    0.5840    2.0880 H         1 117_ideal         0.0000
     65 H24        -0.3370    0.6770    2.3820 H         1 117_ideal         0.0000
     66 H25        -0.5600   -1.7250    1.8110 H         1 117_ideal         0.0000
     67 H26         1.1920   -1.8180    1.5180 H         1 117_ideal         0.0000
     68 H27         1.2430   -1.5810   -3.9450 H         1 117_ideal         0.0000
     69 H28         2.7090   -1.0960    0.4800 H         1 117_ideal         0.0000
     70 H29         2.5290   -2.7240   -1.3800 H         1 117_ideal         0.0000
     71 H30         2.9340   -1.4390   -2.5430 H         1 117_ideal         0.0000
     72 H31         4.1400   -1.9680   -1.3460 H         1 117_ideal         0.0000
     73 H32         2.9690    1.3140   -0.0390 H         1 117_ideal         0.0000
     74 H33         4.3970    0.3890   -0.5630 H         1 117_ideal         0.0000
     75 H34         3.1910    0.9180   -1.7600 H         1 117_ideal         0.0000
     76 H35         2.6500   -0.7920    3.5920 H         1 117_ideal         0.0000
@<TRIPOS>BOND
     1    1    2 ar
     2    1    6 ar
     3    1   42 1
     4    2    3 ar
     5    2   32 1
     6    3    4 ar
     7    3   43 1
     8    4    5 ar
     9    4   44 1
    10    5    6 ar
    11    5   45 1
    12    6   46 1
    13    7    8 ar
    14    7   12 ar
    15    7   47 1
    16    8    9 ar
    17    8   48 1
    18    9   10 ar
    19    9   14 1
    20   10   11 ar
    21   10   49 1
    22   11   12 ar
    23   11   50 1
    24   12   13 1
    25   14   31 1
    26   14   32 2
    27   15   16 ar
    28   15   20 ar
    29   15   35 1
    30   16   17 ar
    31   16   51 1
    32   17   18 ar
    33   17   52 1
    34   18   19 ar
    35   18   53 1
    36   19   20 ar
    37   19   54 1
    38   20   55 1
    39   21   24 1
    40   21   56 1
    41   22   24 2
    42   23   26 1
    43   23   57 1
    44   24   25 1
    45   25   26 1
    46   25   58 1
    47   25   59 1
    48   26   27 1
    49   26   60 1
    50   27   28 1
    51   27   61 1
    52   27   62 1
    53   28   29 1
    54   28   41 1
    55   28   63 1
    56   29   30 1
    57   29   64 1
    58   29   65 1
    59   30   31 1
    60   30   66 1
    61   30   67 1
    62   31   37 1
    63   32   33 1
    64   33   34 1
    65   33   37 2
    66   34   35 am
    67   34   36 2
    68   35   68 1
    69   37   38 1
    70   38   39 1
    71   38   40 1
    72   38   69 1
    73   39   70 1
    74   39   71 1
    75   39   72 1
    76   40   73 1
    77   40   74 1
    78   40   75 1
    79   41   76 1
