@<TRIPOS>MOLECULE
ZINC000000000053
  20   20    0    0    0
SMALL
USER_CHARGES
NO_NAME
@<TRIPOS>ATOM
    1 C1       -1.4637     1.3943     1.2946 C.3    1 <0>      -0.1400
    2 C2       -1.3545    -0.1059     1.2010 C.2    1 <0>       0.4800
    3 O3       -1.4493    -0.7819     2.1980 O.2    1 <0>      -0.5100
    4 O4       -1.1519    -0.6914     0.0093 O.3    1 <0>      -0.2800
    5 C5       -0.9578    -2.0342     0.0079 C.ar   1 <0>       0.1100
    6 C6        0.3270    -2.5523     0.0594 C.ar   1 <0>      -0.1400
    7 C7        0.5232    -3.9195     0.0578 C.ar   1 <0>      -0.1200
    8 C8       -0.5586    -4.7832     0.0050 C.ar   1 <0>      -0.1400
    9 C9       -1.8430    -4.2868    -0.0466 C.ar   1 <0>      -0.0800
   10 C10      -2.0568    -2.9052    -0.0398 C.ar   1 <0>      -0.1400
   11 C11      -3.4263    -2.3674    -0.0943 C.2    1 <0>       0.5200
   12 O12      -4.3813    -3.1301    -0.1456 O.co2  1 <0>      -0.6900
   13 O13      -3.6091    -1.1578    -0.0882 O.co2  1 <0>      -0.6800
   14 H14      -1.6261     1.6826     2.3332 H      1 <0>       0.0900
   15 H15      -0.5422     1.8490     0.9311 H      1 <0>       0.0900
   16 H16      -2.3018     1.7362     0.6873 H      1 <0>       0.1000
   17 H17       1.1759    -1.8858     0.1003 H      1 <0>       0.1200
   18 H18       1.5263    -4.3177     0.0977 H      1 <0>       0.1200
   19 H19      -0.3945    -5.8507     0.0040 H      1 <0>       0.1200
   20 H20      -2.6833    -4.9640    -0.0884 H      1 <0>       0.1300
@<TRIPOS>BOND
   1    1    2 1
   2    1   14 1
   3    1   15 1
   4    1   16 1
   5    2    3 2
   6    2    4 1
   7    4    5 1
   8    5   10 ar
   9    5    6 ar
  10    6    7 ar
  11    6   17 1
  12    7    8 ar
  13    7   18 1
  14    8    9 ar
  15    8   19 1
  16    9   10 ar
  17    9   20 1
  18   10   11 1
  19   11   12 ar
  20   11   13 ar
